iidm/iidm-serde/src/test/resources/V1_17/twoWindingsTransformerPhaseAndRatioTapWithExtensions.xml
<?xml version="1.0" encoding="UTF-8"?>
<iidm:network xmlns:iidm="http://www.powsybl.org/schema/iidm/1_17"
              xmlns:twowtpac="http://www.powsybl.org/schema/iidm/ext/two_windings_transformer_phase_angle_clock/1_0"
              id="sim1" caseDate="2019-05-27T12:17:02.504+02:00" forecastDistance="0" sourceFormat="test"
              minimumValidationLevel="STEADY_STATE_HYPOTHESIS"
              xmlns:xs="http://www.powsybl.org/schema/iidm/ext/substation_position/1_0"
              xmlns:bar="http://www.itesla_project.eu/schema/iidm/ext/loadbar/1_0"
              xmlns:foo="http://www.itesla_project.eu/schema/iidm/ext/loadfoo/1_0">
    <iidm:substation id="P1" country="FR" tso="RTE" geographicalTags="A">
        <iidm:voltageLevel id="VLGEN" nominalV="24.0" topologyKind="BUS_BREAKER">
            <iidm:busBreakerTopology>
                <iidm:bus id="NGEN"/>
            </iidm:busBreakerTopology>
            <iidm:generator id="GEN" energySource="OTHER" minP="-9999.99" maxP="9999.99" targetP="607.0" localTargetV="24.5" localTargetQ="301.0" bus="NGEN" connectableBus="NGEN">
                <iidm:minMaxReactiveLimits minQ="-9999.99" maxQ="9999.99"/>
                <iidm:voltageRegulation mode="VOLTAGE" regulating="true"/>
            </iidm:generator>
        </iidm:voltageLevel>
        <iidm:voltageLevel id="VLHV1" nominalV="380.0" topologyKind="BUS_BREAKER">
            <iidm:busBreakerTopology>
                <iidm:bus id="NHV1"/>
            </iidm:busBreakerTopology>
        </iidm:voltageLevel>
        <iidm:twoWindingsTransformer id="NGEN_NHV1" r="0.26658461538461536" x="11.104492831516762" ratedU1="24.0" ratedU2="400.0" bus1="NGEN" connectableBus1="NGEN" voltageLevelId1="VLGEN" bus2="NHV1" connectableBus2="NHV1" voltageLevelId2="VLHV1"/>
    </iidm:substation>
    <iidm:substation id="P2" country="FR" tso="RTE" geographicalTags="B">
        <iidm:voltageLevel id="VLHV2" nominalV="380.0" topologyKind="BUS_BREAKER">
            <iidm:busBreakerTopology>
                <iidm:bus id="NHV2"/>
            </iidm:busBreakerTopology>
        </iidm:voltageLevel>
        <iidm:voltageLevel id="VLLOAD" nominalV="150.0" topologyKind="BUS_BREAKER">
            <iidm:busBreakerTopology>
                <iidm:bus id="NLOAD"/>
            </iidm:busBreakerTopology>
            <iidm:load id="LOAD" loadType="UNDEFINED" p0="600.0" q0="200.0" bus="NLOAD" connectableBus="NLOAD"/>
            <iidm:load id="LOAD2" loadType="UNDEFINED" p0="700.0" q0="200.0" bus="NLOAD" connectableBus="NLOAD"/>
        </iidm:voltageLevel>
        <iidm:twoWindingsTransformer id="NHV2_NLOAD" r="0.04724999999999999" x="4.049724365620455" ratedU1="400.0" ratedU2="158.0" bus1="NHV2" connectableBus1="NHV2" voltageLevelId1="VLHV2" bus2="NLOAD" connectableBus2="NLOAD" voltageLevelId2="VLLOAD">
            <iidm:ratioTapChanger tapPosition="1" solvedTapPosition="1" loadTapChangingCapabilities="true" regulating="true" regulationMode="VOLTAGE" regulationValue="158.0" targetDeadband="0.0">
                <iidm:terminalRef id="NHV2_NLOAD" side="TWO"/>
                <iidm:step rho="0.8505666905244191"/>
                <iidm:step rho="1.0006666666666666"/>
                <iidm:step rho="1.150766642808914"/>
            </iidm:ratioTapChanger>
            <iidm:phaseTapChanger tapPosition="1" solvedTapPosition="0" loadTapChangingCapabilities="true" regulating="false" regulationMode="CURRENT_LIMITER" targetDeadband="0.0">
                <iidm:terminalRef id="NHV2_NLOAD" side="TWO"/>
                <iidm:step rho="0.8505666905244191" alpha="1"/>
                <iidm:step rho="1.0006666666666666" alpha="1"/>
                <iidm:step rho="1.150766642808914" alpha="1"/>
            </iidm:phaseTapChanger>
        </iidm:twoWindingsTransformer>
        <iidm:twoWindingsTransformer id="NHV2_NLOAD_2" r="0.04724999999999999" x="4.049724365620455" ratedU1="400.0" ratedU2="158.0" bus1="NHV2" connectableBus1="NHV2" voltageLevelId1="VLHV2" bus2="NLOAD" connectableBus2="NLOAD" voltageLevelId2="VLLOAD">
            <iidm:ratioTapChanger tapPosition="1" loadTapChangingCapabilities="true" regulating="true" regulationMode="VOLTAGE" regulationValue="158.0" targetDeadband="0.0">
                <iidm:terminalRef id="NHV2_NLOAD_2" side="TWO"/>
                <iidm:step rho="0.8505666905244191"/>
                <iidm:step rho="1.0006666666666666"/>
                <iidm:step rho="1.150766642808914"/>
            </iidm:ratioTapChanger>
            <iidm:phaseTapChanger tapPosition="1" loadTapChangingCapabilities="true" regulating="false" regulationMode="CURRENT_LIMITER" targetDeadband="0.0">
                <iidm:terminalRef id="NHV2_NLOAD_2" side="TWO"/>
                <iidm:step rho="0.8505666905244191" alpha="1"/>
                <iidm:step rho="1.0006666666666666" alpha="1"/>
                <iidm:step rho="1.150766642808914" alpha="1"/>
            </iidm:phaseTapChanger>
        </iidm:twoWindingsTransformer>
    </iidm:substation>
    <iidm:extension id="LOAD">
        <foo:loadFoo/>
        <bar:loadBar/>
    </iidm:extension>
    <iidm:extension id="LOAD2">
        <foo:loadFoo/>
    </iidm:extension>
</iidm:network>
